Circuit: * C:\dev\jodelautomat-visualsystem\KiCad-Schematics\Breadboard\AuxAdderInverterCircuit.asc

Direct Newton iteration for .op point succeeded.

Date: Mon Apr 24 02:30:22 2023
Total elapsed time: 0.039 seconds.

tnom = 27
temp = 27
method = modified trap
totiter = 2107
traniter = 2104
tranpoints = 1053
accept = 1049
rejected = 4
matrix size = 15
fillins = 0
solver = Normal
Matrix Compiler1:      29 opcodes  0.1/[0.1]/0.1
Matrix Compiler2: 1.04 KB object code size  0.1/0.1/[0.1]

