Circuit: * C:\dev\jodelautomat-visualsystem\KiCad-Schematics\Breadboard\AuxAdderInverterCircuit-Modified.asc

Direct Newton iteration for .op point succeeded.

Date: Mon Apr 24 02:22:11 2023
Total elapsed time: 0.144 seconds.

tnom = 27
temp = 27
method = modified trap
totiter = 2085
traniter = 2082
tranpoints = 1042
accept = 1042
rejected = 0
matrix size = 14
fillins = 0
solver = Normal
Matrix Compiler1: 456 bytes object code size  0.2/0.1/[0.1]
Matrix Compiler2: 978 bytes object code size  0.1/0.1/[0.1]

